#======================================================================

# CRYSTAL DATA

#----------------------------------------------------------------------

data_VESTA_phase_1


_chemical_name_common                  'Li Ge P S                             '
_cell_length_a                         8.56052
_cell_length_b                         8.52808
_cell_length_c                         12.18697
_cell_angle_alpha                      90.47667
_cell_angle_beta                       90.63548
_cell_angle_gamma                      89.87970
_space_group_name_H-M_alt              'P 1'
_space_group_IT_number                 1

loop_
_space_group_symop_operation_xyz
   'x, y, z'
   
loop_
_atom_type_symbol
_atom_type_oxidation_number
Ge4+	4
Li1+	1
P5+	5
S2-	-2

loop_
   _atom_site_label
   _atom_site_occupancy
   _atom_site_fract_x
   _atom_site_fract_y
   _atom_site_fract_z
   _atom_site_adp_type
   _atom_site_B_iso_or_equiv
   _atom_site_type_symbol
   Li13        1.0     0.978438      0.477737      0.954266     Biso  1.000000 Li1+
   Li11        1.0     0.002874      0.509154      0.445627     Biso  1.000000 Li1+
   Li16        1.0     0.516685      0.993559      0.557004     Biso  1.000000 Li1+
   Li12        1.0     0.493749      0.003012      0.047822     Biso  1.000000 Li1+
   Li1        1.0     0.250189      0.283355      0.119414     Biso  1.000000 Li1+
   Li5        1.0     0.758734      0.783006      0.387034     Biso  1.000000 Li1+
   Li14        1.0     0.034308      0.975074      0.756761     Biso  1.000000 Li1+
   Li19        1.0     0.239588      0.736736      0.239129     Biso  1.000000 Li1+
   Li7        1.0     0.744142      0.245614      0.254309     Biso  1.000000 Li1+
   Li10       1.0     0.458487      0.496952      0.752888     Biso  1.000000 Li1+
   Li2       1.0     0.232864      0.256828      0.448039     Biso  1.000000 Li1+
   Li9       1.0     0.712913      0.242039      0.879576     Biso  1.000000 Li1+
   Li17       1.0     0.228821      0.724792      0.955726     Biso  1.000000 Li1+
   Li20       1.0     0.001345      0.027127      0.245239     Biso  1.000000 Li1+
   Li15       1.0     0.746499      0.739793      0.754441     Biso  1.000000 Li1+
   Li3       1.0     0.254386      0.232249      0.762617     Biso  1.000000 Li1+
   Li6       1.0     0.732271      0.752011      0.051938     Biso  1.000000 Li1+
   Li18       1.0     0.260614      0.758221      0.550639     Biso  1.000000 Li1+
   Li8       1.0     0.783924      0.232261      0.608894     Biso  1.000000 Li1+
   Li4       1.0     0.500714      0.508373      0.253374     Biso  1.000000 Li1+
   Ge1        1.0     0.987615      0.488100      0.196441     Biso  1.000000 Ge4+
   Ge2        1.0     0.491575      0.977532      0.806111     Biso  1.000000 Ge4+
   P1         1.0     0.002970      0.996814      0.501980     Biso  1.000000 P5+
   P2         1.0     0.493106      0.487159      0.003469     Biso  1.000000 P5+
   P3         1.0     0.000193      0.493157      0.694174     Biso  1.000000 P5+
   P4         1.0     0.490033      0.994163      0.307922     Biso  1.000000 P5+
   S1         1.0     0.949940      0.194706      0.415120     Biso  1.000000 S2-
   S2         1.0     0.044287      0.811034      0.397989     Biso  1.000000 S2-
   S3         1.0     0.292291      0.441942      0.916571     Biso  1.000000 S2-
   S4         1.0     0.679042      0.526744      0.902772     Biso  1.000000 S2-
   S5         1.0     0.457040      0.688018      0.094175     Biso  1.000000 S2-
   S6         1.0     0.538547      0.300267      0.101355     Biso  1.000000 S2-
   S7         1.0     0.201441      0.036718      0.594161     Biso  1.000000 S2-
   S8         1.0     0.818096      0.944070      0.599367     Biso  1.000000 S2-
   S9         1.0     0.961408      0.265777      0.100887     Biso  1.000000 S2-
   S10        1.0     0.011901      0.705504      0.096613     Biso  1.000000 S2-
   S11        1.0     0.204606      0.471413      0.605059     Biso  1.000000 S2-
   S12        1.0     0.807022      0.523852      0.598795     Biso  1.000000 S2-
   S13        1.0     0.467311      0.791080      0.397480     Biso  1.000000 S2-
   S14        1.0     0.517826      0.190700      0.403146     Biso  1.000000 S2-
   S15        1.0     0.273160      0.006000      0.901550     Biso  1.000000 S2-
   S16        1.0     0.710503      0.959190      0.907622     Biso  1.000000 S2-
   S17        1.0     0.021130      0.679913      0.800563     Biso  1.000000 S2-
   S18        1.0     0.972448      0.288172      0.783315     Biso  1.000000 S2-
   S19        1.0     0.784799      0.517942      0.306878     Biso  1.000000 S2-
   S20        1.0     0.210682      0.461835      0.295443     Biso  1.000000 S2-
   S21        1.0     0.529091      0.202569      0.711378     Biso  1.000000 S2-
   S22        1.0     0.479724      0.774965      0.691325     Biso  1.000000 S2-
   S23        1.0     0.691378      0.963362      0.216852     Biso  1.000000 S2-
   S24        1.0     0.299323      0.015505      0.204431     Biso  1.000000 S2-
